<?xml version="1.0" encoding="UTF-8"?>

<!-- generated on 2024-05-29 16:44:24.233547 by randomTrips.py v1_20_0+0002-343658e7c64
<configuration>
    <net-file value="test.net.xml"/>
    <route-file value="test.rou.xml"/>
    <length value="True"/>
    <end value="50.0"/>
</configuration>
-->

<!-- generated on 2024-05-29 16:44:24 by Eclipse SUMO duarouter Version 1.20.0
<configuration xmlns:xsi="http://www.w3.org/2001/XMLSchema-instance" xsi:noNamespaceSchemaLocation="http://sumo.dlr.de/xsd/duarouterConfiguration.xsd">

    <input>
        <net-file value="test.net.xml"/>
        <route-files value="trips.trips.xml"/>
    </input>

    <output>
        <output-file value="test.rou.xml"/>
        <alternatives-output value="NUL"/>
    </output>

    <time>
        <begin value="0"/>
        <end value="50.0"/>
    </time>

    <report>
        <no-warnings value="true"/>
        <ignore-errors value="true"/>
        <no-step-log value="true"/>
    </report>

</configuration>
-->

<routes xmlns:xsi="http://www.w3.org/2001/XMLSchema-instance" xsi:noNamespaceSchemaLocation="http://sumo.dlr.de/xsd/routes_file.xsd">
    <vehicle id="0" depart="0.00">
        <route edges="305735033#0 -305735185#1 -305735185#0 -305735031#1 -305735031#0"/>
    </vehicle>
    <vehicle id="1" depart="1.00">
        <route edges="-462111667#2 -305735033#4 -305735033#3 -305735033#2 -305735033#1 -305735033#0"/>
    </vehicle>
    <vehicle id="2" depart="2.00">
        <route edges="305735033#0 -305735185#1 305735193#2"/>
    </vehicle>
    <vehicle id="3" depart="3.00">
        <route edges="462111666#0 462111666#1 462111666#2 462111667#0 462111667#1 -305735033#4 -305735033#3 -305735033#2 -305735033#1 -305735033#0"/>
    </vehicle>
    <vehicle id="4" depart="4.00">
        <route edges="305735031#0 -305735031#0"/>
    </vehicle>
    <vehicle id="5" depart="5.00">
        <route edges="-462111667#2 -462111667#1 -462111667#0 -462111666#2 -462111666#1 -462111666#0"/>
    </vehicle>
    <vehicle id="6" depart="6.00">
        <route edges="-305735108 305735193#1 305735185#1 -305735033#0"/>
    </vehicle>
    <vehicle id="7" depart="7.00">
        <route edges="305735033#0 305735033#1 305735033#2 305735033#3 305735033#4 -462111667#1 -462111667#0 -462111666#2 -462111666#1 -462111666#0"/>
    </vehicle>
    <vehicle id="8" depart="8.00">
        <route edges="-462111667#2 -462111667#1 -462111667#0 -462111666#2 -462111666#1 -464120378"/>
    </vehicle>
    <vehicle id="9" depart="9.00">
        <route edges="305735193#0 305735108 -305735031#0"/>
    </vehicle>
    <vehicle id="10" depart="10.00">
        <route edges="305735193#0 305735193#1 305735193#2 305735033#3 336113403#0 336113403#1"/>
    </vehicle>
    <vehicle id="11" depart="11.00">
        <route edges="-462111667#2 -305735033#4 -305735033#3 -305735033#2 -305735033#1 -305735033#0"/>
    </vehicle>
    <vehicle id="12" depart="12.00">
        <route edges="462111666#0 462111666#1 462111666#2 462111667#0 462111667#1 -305735033#4 -305735033#3 -305735033#2 -305735033#1 -305735033#0"/>
    </vehicle>
    <vehicle id="13" depart="13.00">
        <route edges="-336113403#1 -336113447#0 -305735033#1 -305735033#0"/>
    </vehicle>
    <vehicle id="14" depart="14.00">
        <route edges="336113447#0 -336113447#0 305735033#2 305735033#3 305735033#4 -462111667#1 -462111667#0 -462111666#2 -462111666#1 -464120378"/>
    </vehicle>
    <vehicle id="15" depart="15.00">
        <route edges="305735193#0 305735193#1 305735193#2 305735033#3 305735033#4 -462111667#1 305735086#0 305735086#1 338064150"/>
    </vehicle>
    <vehicle id="16" depart="16.00">
        <route edges="305735033#0 305735033#1 305735033#2 305735033#3 305735033#4 462111667#2"/>
    </vehicle>
    <vehicle id="17" depart="17.00">
        <route edges="-462111667#2 -462111667#1 -462111667#0 -462111666#2 -462111666#1 -462111666#0"/>
    </vehicle>
    <vehicle id="18" depart="18.00">
        <route edges="336113403#0 -336113447#0 305735033#2 305735033#3 305735033#4"/>
    </vehicle>
    <vehicle id="19" depart="19.00">
        <route edges="462111666#0 462111666#1 462111666#2 462111667#0 462111667#1 -462111667#1"/>
    </vehicle>
    <vehicle id="20" depart="20.00">
        <route edges="305735033#0 -305735033#0"/>
    </vehicle>
    <vehicle id="21" depart="21.00">
        <route edges="-462111667#2 -305735033#4 -305735033#3 -305735033#2 -305735033#1 -305735033#0"/>
    </vehicle>
    <vehicle id="22" depart="22.00">
        <route edges="-336113403#0 -305735033#3 -305735033#2 -305735033#1 -305735033#0"/>
    </vehicle>
    <vehicle id="23" depart="23.00">
        <route edges="-336113447#0 -305735033#1 -305735033#0"/>
    </vehicle>
    <vehicle id="24" depart="24.00">
        <route edges="305735033#0 305735033#1 305735033#2 305735033#3 305735033#4 -462111667#1 -462111667#0 -462111666#2 305735169#0 -305735169#0"/>
    </vehicle>
    <vehicle id="25" depart="25.00">
        <route edges="-462111667#2 -305735033#4 -305735033#3 -305735033#2 -305735033#1 -305735033#0"/>
    </vehicle>
    <vehicle id="26" depart="26.00">
        <route edges="-462111667#2 462111667#2"/>
    </vehicle>
    <vehicle id="27" depart="27.00">
        <route edges="305735033#0 305735033#1 305735033#2 -305735193#2 -305735193#1 305735108 305735031#1"/>
    </vehicle>
    <vehicle id="28" depart="28.00">
        <route edges="-462111667#2 -462111667#1 305735086#0 305735086#1 338064150"/>
    </vehicle>
    <vehicle id="29" depart="29.00">
        <route edges="-462111667#2 -305735033#4 -305735033#3 -305735033#2 -305735033#1 -305735185#1"/>
    </vehicle>
    <vehicle id="30" depart="30.00">
        <route edges="464120378 462111666#1 305735169#0"/>
    </vehicle>
    <vehicle id="31" depart="31.00">
        <route edges="305735033#0 305735033#1 305735033#2 305735033#3 336113403#0"/>
    </vehicle>
    <vehicle id="32" depart="32.00">
        <route edges="336113447#0 -336113447#0 305735033#2 305735033#3 305735033#4 462111667#2"/>
    </vehicle>
    <vehicle id="33" depart="33.00">
        <route edges="-462111667#2 -462111667#1 -462111667#0 -305735031#2 -305735031#1 -305735031#0"/>
    </vehicle>
    <vehicle id="34" depart="34.00">
        <route edges="-462111667#2 -305735033#4 -305735033#3 -305735033#2 -305735033#1 -305735033#0"/>
    </vehicle>
    <vehicle id="35" depart="35.00">
        <route edges="-462111667#2 462111667#2"/>
    </vehicle>
    <vehicle id="36" depart="36.00">
        <route edges="462111666#0 462111666#1 462111666#2 462111667#0 462111667#1 -305735033#4 -305735033#3 -305735033#2 -305735033#1 -305735033#0"/>
    </vehicle>
    <vehicle id="37" depart="37.00">
        <route edges="305735033#0 305735033#1 305735033#2 -305735193#2 -305735193#1 -305735193#0"/>
    </vehicle>
    <vehicle id="38" depart="38.00">
        <route edges="462111666#0 462111666#1 305735169#0 -338064150"/>
    </vehicle>
    <vehicle id="39" depart="39.00">
        <route edges="-462111667#2 -305735033#4 -305735033#3 -305735033#2 -305735033#1 -305735033#0"/>
    </vehicle>
    <vehicle id="40" depart="40.00">
        <route edges="305735033#0 -305735033#0"/>
    </vehicle>
    <vehicle id="41" depart="41.00">
        <route edges="305735033#0 305735033#1 305735033#2 305735033#3 305735033#4 462111667#2"/>
    </vehicle>
    <vehicle id="42" depart="42.00">
        <route edges="305735031#0 305735031#1 305735185#0 305735185#1 -305735033#0"/>
    </vehicle>
    <vehicle id="43" depart="43.00">
        <route edges="464120378 -462111666#0"/>
    </vehicle>
    <vehicle id="44" depart="44.00">
        <route edges="-336113403#1 -336113447#0 -305735033#1 -305735033#0"/>
    </vehicle>
    <vehicle id="45" depart="45.00">
        <route edges="-336113447#1 -336113447#0 305735033#2 305735033#3 305735033#4 -462111667#1 305735086#0 305735086#1 305735086#2"/>
    </vehicle>
    <vehicle id="46" depart="46.00">
        <route edges="305735193#0 305735193#1 305735193#2 -305735193#2"/>
    </vehicle>
    <vehicle id="47" depart="47.00">
        <route edges="-305735193#1 -305735193#0"/>
    </vehicle>
    <vehicle id="48" depart="48.00">
        <route edges="464120378 -462111666#0"/>
    </vehicle>
    <vehicle id="49" depart="49.00">
        <route edges="462111667#0 462111667#1 462111667#2"/>
    </vehicle>
</routes>
