<?xml version="1.0" encoding="UTF-8"?>

<!-- generated on 2024-05-29 16:33:13 by Eclipse SUMO netconvert Version 1.20.0
<configuration xmlns:xsi="http://www.w3.org/2001/XMLSchema-instance" xsi:noNamespaceSchemaLocation="http://sumo.dlr.de/xsd/netconvertConfiguration.xsd">

    <input>
        <osm-files value="map.osm"/>
    </input>

    <output>
        <output-file value="test.net.xml"/>
    </output>

    <projection>
        <proj.utm value="true"/>
    </projection>

</configuration>
-->

<net version="1.20" junctionCornerDetail="5" limitTurnSpeed="5.50" xmlns:xsi="http://www.w3.org/2001/XMLSchema-instance" xsi:noNamespaceSchemaLocation="http://sumo.dlr.de/xsd/net_file.xsd">

    <location netOffset="-655203.46,-4454623.11" convBoundary="0.00,0.00,2025.45,2071.96" origBoundary="28.824497,40.227341,28.848504,40.245972" projParameter="+proj=utm +zone=35 +ellps=WGS84 +datum=WGS84 +units=m +no_defs"/>

    <type id="highway.residential" priority="3" numLanes="1" speed="13.89" disallow="tram rail_urban rail rail_electric rail_fast ship container cable_car subway aircraft wheelchair scooter drone" oneway="0"/>
    <type id="highway.tertiary" priority="10" numLanes="1" speed="22.22" disallow="tram rail_urban rail rail_electric rail_fast ship container cable_car subway aircraft wheelchair scooter drone" oneway="0"/>

    <edge id=":2584250811_0" function="internal">
        <lane id=":2584250811_0_0" index="0" disallow="tram rail_urban rail rail_electric rail_fast ship container cable_car subway aircraft wheelchair scooter drone" speed="22.22" length="14.19" shape="1311.97,435.88 1302.59,446.53"/>
    </edge>
    <edge id=":2584250811_1" function="internal">
        <lane id=":2584250811_1_0" index="0" disallow="tram rail_urban rail rail_electric rail_fast ship container cable_car subway aircraft wheelchair scooter drone" speed="8.13" length="3.82" shape="1311.97,435.88 1309.01,438.29"/>
    </edge>
    <edge id=":2584250811_2" function="internal">
        <lane id=":2584250811_2_0" index="0" disallow="tram rail_urban rail rail_electric rail_fast ship container cable_car subway aircraft wheelchair scooter drone" speed="3.65" length="1.44" shape="1311.97,435.88 1310.57,436.22"/>
    </edge>
    <edge id=":2584250811_9" function="internal">
        <lane id=":2584250811_9_0" index="0" disallow="tram rail_urban rail rail_electric rail_fast ship container cable_car subway aircraft wheelchair scooter drone" speed="8.13" length="10.33" shape="1309.01,438.29 1305.94,439.21 1302.76,438.64 1299.46,436.58"/>
    </edge>
    <edge id=":2584250811_10" function="internal">
        <lane id=":2584250811_10_0" index="0" disallow="tram rail_urban rail rail_electric rail_fast ship container cable_car subway aircraft wheelchair scooter drone" speed="3.65" length="3.23" shape="1310.57,436.22 1309.71,435.97 1309.40,435.14 1309.62,433.71"/>
    </edge>
    <edge id=":2584250811_3" function="internal">
        <lane id=":2584250811_3_0" index="0" disallow="tram rail_urban rail rail_electric rail_fast ship container cable_car subway aircraft wheelchair scooter drone" speed="6.66" length="9.17" shape="1301.51,434.13 1303.65,435.47 1305.72,435.85 1307.71,435.26 1309.62,433.71"/>
    </edge>
    <edge id=":2584250811_4" function="internal">
        <lane id=":2584250811_4_0" index="0" disallow="tram rail_urban rail rail_electric rail_fast ship container cable_car subway aircraft wheelchair scooter drone" speed="7.99" length="14.21" shape="1301.51,434.13 1304.12,437.02 1305.17,440.05 1304.66,443.22 1302.59,446.53"/>
    </edge>
    <edge id=":2584250811_5" function="internal">
        <lane id=":2584250811_5_0" index="0" disallow="tram rail_urban rail rail_electric rail_fast ship container cable_car subway aircraft wheelchair scooter drone" speed="3.65" length="4.67" shape="1301.51,434.13 1301.91,435.51 1301.71,436.38 1300.89,436.74 1299.46,436.58"/>
    </edge>
    <edge id=":2584250811_6" function="internal">
        <lane id=":2584250811_6_0" index="0" disallow="tram rail_urban rail rail_electric rail_fast ship container cable_car subway aircraft wheelchair scooter drone" speed="6.49" length="9.03" shape="1300.15,444.46 1301.46,442.36 1301.78,440.35 1301.11,438.42 1299.46,436.58"/>
    </edge>
    <edge id=":2584250811_7" function="internal">
        <lane id=":2584250811_7_0" index="0" disallow="tram rail_urban rail rail_electric rail_fast ship container cable_car subway aircraft wheelchair scooter drone" speed="22.22" length="14.33" shape="1300.15,444.46 1309.62,433.71"/>
    </edge>
    <edge id=":2584250811_8" function="internal">
        <lane id=":2584250811_8_0" index="0" disallow="tram rail_urban rail rail_electric rail_fast ship container cable_car subway aircraft wheelchair scooter drone" speed="3.65" length="1.44" shape="1300.15,444.46 1301.53,444.06"/>
    </edge>
    <edge id=":2584250811_11" function="internal">
        <lane id=":2584250811_11_0" index="0" disallow="tram rail_urban rail rail_electric rail_fast ship container cable_car subway aircraft wheelchair scooter drone" speed="3.65" length="3.23" shape="1301.53,444.06 1302.40,444.27 1302.75,445.09 1302.59,446.53"/>
    </edge>
    <edge id=":2584250812_0" function="internal">
        <lane id=":2584250812_0_0" index="0" disallow="tram rail_urban rail rail_electric rail_fast ship container cable_car subway aircraft wheelchair scooter drone" speed="3.65" length="4.67" shape="1185.84,434.31 1185.01,433.13 1184.94,432.23 1185.60,431.64 1187.01,431.34"/>
    </edge>
    <edge id=":2772724373_0" function="internal">
        <lane id=":2772724373_0_0" index="0" disallow="tram rail_urban rail rail_electric rail_fast ship container cable_car subway aircraft wheelchair scooter drone" speed="3.65" length="4.67" shape="1.25,1023.63 -0.12,1024.07 -1.00,1023.89 -1.37,1023.07 -1.25,1021.64"/>
    </edge>
    <edge id=":3104000179_0" function="internal">
        <lane id=":3104000179_0_0" index="0" disallow="tram rail_urban rail rail_electric rail_fast ship container cable_car subway aircraft wheelchair scooter drone" speed="3.65" length="4.67" shape="1278.11,263.45 1278.48,262.05 1279.10,261.41 1279.99,261.53 1281.14,262.40"/>
    </edge>
    <edge id=":3104000223_0" function="internal">
        <lane id=":3104000223_0_0" index="0" disallow="tram rail_urban rail rail_electric rail_fast ship container cable_car subway aircraft wheelchair scooter drone" speed="3.65" length="4.67" shape="1240.55,371.66 1241.00,370.29 1241.66,369.69 1242.54,369.86 1243.63,370.81"/>
    </edge>
    <edge id=":3104000345_0" function="internal">
        <lane id=":3104000345_0_0" index="0" disallow="tram rail_urban rail rail_electric rail_fast ship container cable_car subway aircraft wheelchair scooter drone" speed="22.22" length="14.31" shape="1335.96,410.05 1326.15,420.47"/>
    </edge>
    <edge id=":3104000345_1" function="internal">
        <lane id=":3104000345_1_0" index="0" disallow="tram rail_urban rail rail_electric rail_fast ship container cable_car subway aircraft wheelchair scooter drone" speed="7.93" length="3.96" shape="1335.96,410.05 1332.84,412.49"/>
    </edge>
    <edge id=":3104000345_2" function="internal">
        <lane id=":3104000345_2_0" index="0" disallow="tram rail_urban rail rail_electric rail_fast ship container cable_car subway aircraft wheelchair scooter drone" speed="3.65" length="1.44" shape="1335.96,410.05 1334.55,410.37"/>
    </edge>
    <edge id=":3104000345_9" function="internal">
        <lane id=":3104000345_9_0" index="0" disallow="tram rail_urban rail rail_electric rail_fast ship container cable_car subway aircraft wheelchair scooter drone" speed="7.93" length="10.40" shape="1332.84,412.49 1329.72,413.30 1326.60,412.48 1323.49,410.04"/>
    </edge>
    <edge id=":3104000345_10" function="internal">
        <lane id=":3104000345_10_0" index="0" disallow="tram rail_urban rail rail_electric rail_fast ship container cable_car subway aircraft wheelchair scooter drone" speed="3.65" length="3.23" shape="1334.55,410.37 1333.69,410.10 1333.39,409.26 1333.65,407.84"/>
    </edge>
    <edge id=":3104000345_3" function="internal">
        <lane id=":3104000345_3_0" index="0" disallow="tram rail_urban rail rail_electric rail_fast ship container cable_car subway aircraft wheelchair scooter drone" speed="6.42" length="9.04" shape="1325.80,407.83 1327.76,409.37 1329.72,409.88 1331.69,409.37 1333.65,407.84"/>
    </edge>
    <edge id=":3104000345_4" function="internal">
        <lane id=":3104000345_4_0" index="0" disallow="tram rail_urban rail rail_electric rail_fast ship container cable_car subway aircraft wheelchair scooter drone" speed="8.20" length="14.23" shape="1325.80,407.83 1328.12,411.02 1328.94,414.19 1328.29,417.34 1326.15,420.47"/>
    </edge>
    <edge id=":3104000345_5" function="internal">
        <lane id=":3104000345_5_0" index="0" disallow="tram rail_urban rail rail_electric rail_fast ship container cable_car subway aircraft wheelchair scooter drone" speed="3.65" length="4.67" shape="1325.80,407.83 1326.05,409.25 1325.75,410.09 1324.90,410.35 1323.49,410.04"/>
    </edge>
    <edge id=":3104000345_6" function="internal">
        <lane id=":3104000345_6_0" index="0" disallow="tram rail_urban rail rail_electric rail_fast ship container cable_car subway aircraft wheelchair scooter drone" speed="6.75" length="9.31" shape="1323.80,418.31 1325.18,416.27 1325.58,414.22 1325.02,412.14 1323.49,410.04"/>
    </edge>
    <edge id=":3104000345_7" function="internal">
        <lane id=":3104000345_7_0" index="0" disallow="tram rail_urban rail rail_electric rail_fast ship container cable_car subway aircraft wheelchair scooter drone" speed="22.22" length="14.37" shape="1323.80,418.31 1333.65,407.84"/>
    </edge>
    <edge id=":3104000345_8" function="internal">
        <lane id=":3104000345_8_0" index="0" disallow="tram rail_urban rail rail_electric rail_fast ship container cable_car subway aircraft wheelchair scooter drone" speed="3.65" length="1.44" shape="1323.80,418.31 1325.20,417.97"/>
    </edge>
    <edge id=":3104000345_11" function="internal">
        <lane id=":3104000345_11_0" index="0" disallow="tram rail_urban rail rail_electric rail_fast ship container cable_car subway aircraft wheelchair scooter drone" speed="3.65" length="3.23" shape="1325.20,417.97 1326.06,418.21 1326.38,419.05 1326.15,420.47"/>
    </edge>
    <edge id=":3104000371_0" function="internal">
        <lane id=":3104000371_0_0" index="0" disallow="tram rail_urban rail rail_electric rail_fast ship container cable_car subway aircraft wheelchair scooter drone" speed="13.40" length="12.04" shape="1221.18,453.33 1219.43,450.50 1217.78,448.27 1215.76,446.50 1212.86,445.02"/>
    </edge>
    <edge id=":3104000371_1" function="internal">
        <lane id=":3104000371_1_0" index="0" disallow="tram rail_urban rail rail_electric rail_fast ship container cable_car subway aircraft wheelchair scooter drone" speed="7.57" length="15.48" shape="1221.18,453.33 1219.40,449.26 1219.58,445.97 1221.72,443.47 1225.83,441.75"/>
    </edge>
    <edge id=":3104000371_2" function="internal">
        <lane id=":3104000371_2_0" index="0" disallow="tram rail_urban rail rail_electric rail_fast ship container cable_car subway aircraft wheelchair scooter drone" speed="3.65" length="4.67" shape="1221.18,453.33 1221.23,451.89 1221.70,451.13 1222.59,451.05 1223.91,451.65"/>
    </edge>
    <edge id=":3104000371_3" function="internal">
        <lane id=":3104000371_3_0" index="0" disallow="tram rail_urban rail rail_electric rail_fast ship container cable_car subway aircraft wheelchair scooter drone" speed="5.96" length="9.09" shape="1226.63,444.85 1224.22,445.86 1222.96,447.32 1222.86,449.26 1223.91,451.65"/>
    </edge>
    <edge id=":3104000371_4" function="internal">
        <lane id=":3104000371_4_0" index="0" disallow="tram rail_urban rail rail_electric rail_fast ship container cable_car subway aircraft wheelchair scooter drone" speed="13.89" length="14.01" shape="1226.63,444.85 1223.09,445.67 1219.68,446.10 1216.30,445.95 1212.86,445.02"/>
    </edge>
    <edge id=":3104000371_5" function="internal">
        <lane id=":3104000371_5_0" index="0" disallow="tram rail_urban rail rail_electric rail_fast ship container cable_car subway aircraft wheelchair scooter drone" speed="3.65" length="1.44" shape="1226.63,444.85 1225.27,444.38"/>
    </edge>
    <edge id=":3104000371_9" function="internal">
        <lane id=":3104000371_9_0" index="0" disallow="tram rail_urban rail rail_electric rail_fast ship container cable_car subway aircraft wheelchair scooter drone" speed="3.65" length="3.23" shape="1225.27,444.38 1224.68,443.70 1224.87,442.83 1225.83,441.75"/>
    </edge>
    <edge id=":3104000371_6" function="internal">
        <lane id=":3104000371_6_0" index="0" disallow="tram rail_urban rail rail_electric rail_fast ship container cable_car subway aircraft wheelchair scooter drone" speed="13.56" length="12.06" shape="1214.04,442.05 1217.17,442.95 1219.86,443.06 1222.60,442.59 1225.83,441.75"/>
    </edge>
    <edge id=":3104000371_7" function="internal">
        <lane id=":3104000371_7_0" index="0" disallow="tram rail_urban rail rail_electric rail_fast ship container cable_car subway aircraft wheelchair scooter drone" speed="13.89" length="14.02" shape="1214.04,442.05 1217.18,443.73 1219.73,445.94 1221.91,448.61 1223.91,451.65"/>
    </edge>
    <edge id=":3104000371_8" function="internal">
        <lane id=":3104000371_8_0" index="0" disallow="tram rail_urban rail rail_electric rail_fast ship container cable_car subway aircraft wheelchair scooter drone" speed="3.65" length="1.33" shape="1214.04,442.05 1214.80,443.14"/>
    </edge>
    <edge id=":3104000371_10" function="internal">
        <lane id=":3104000371_10_0" index="0" disallow="tram rail_urban rail rail_electric rail_fast ship container cable_car subway aircraft wheelchair scooter drone" speed="3.65" length="3.35" shape="1214.80,443.14 1214.86,443.23 1214.94,444.12 1214.28,444.72 1212.86,445.02"/>
    </edge>
    <edge id=":3104000378_0" function="internal">
        <lane id=":3104000378_0_0" index="0" disallow="tram rail_urban rail rail_electric rail_fast ship container cable_car subway aircraft wheelchair scooter drone" speed="5.82" length="9.13" shape="1348.18,471.55 1347.51,468.96 1346.24,467.56 1344.35,467.33 1341.86,468.29"/>
    </edge>
    <edge id=":3104000378_1" function="internal">
        <lane id=":3104000378_1_0" index="0" disallow="tram rail_urban rail rail_electric rail_fast ship container cable_car subway aircraft wheelchair scooter drone" speed="8.35" length="15.49" shape="1348.18,471.55 1348.21,466.97 1349.48,463.55 1351.98,461.29 1355.72,460.19"/>
    </edge>
    <edge id=":3104000378_2" function="internal">
        <lane id=":3104000378_2_0" index="0" disallow="tram rail_urban rail rail_electric rail_fast ship container cable_car subway aircraft wheelchair scooter drone" speed="3.65" length="4.67" shape="1348.18,471.55 1348.84,470.26 1349.59,469.78 1350.43,470.08 1351.36,471.19"/>
    </edge>
    <edge id=":3104000378_3" function="internal">
        <lane id=":3104000378_3_0" index="0" disallow="tram rail_urban rail rail_electric rail_fast ship container cable_car subway aircraft wheelchair scooter drone" speed="6.94" length="10.36" shape="1356.10,463.37 1353.72,464.11 1352.14,465.65 1351.35,468.01 1351.36,471.19"/>
    </edge>
    <edge id=":3104000378_4" function="internal">
        <lane id=":3104000378_4_0" index="0" disallow="tram rail_urban rail rail_electric rail_fast ship container cable_car subway aircraft wheelchair scooter drone" speed="13.89" length="15.15" shape="1356.10,463.37 1352.39,464.05 1348.76,465.14 1345.23,466.58 1341.86,468.29"/>
    </edge>
    <edge id=":3104000378_5" function="internal">
        <lane id=":3104000378_5_0" index="0" disallow="tram rail_urban rail rail_electric rail_fast ship container cable_car subway aircraft wheelchair scooter drone" speed="3.65" length="1.44" shape="1356.10,463.37 1354.81,462.72"/>
    </edge>
    <edge id=":3104000378_9" function="internal">
        <lane id=":3104000378_9_0" index="0" disallow="tram rail_urban rail rail_electric rail_fast ship container cable_car subway aircraft wheelchair scooter drone" speed="3.65" length="3.23" shape="1354.81,462.72 1354.32,461.97 1354.62,461.13 1355.72,460.19"/>
    </edge>
    <edge id=":3104000378_6" function="internal">
        <lane id=":3104000378_6_0" index="0" disallow="tram rail_urban rail rail_electric rail_fast ship container cable_car subway aircraft wheelchair scooter drone" speed="13.89" length="16.37" shape="1340.31,465.49 1343.86,463.73 1347.79,462.16 1351.83,460.93 1355.72,460.19"/>
    </edge>
    <edge id=":3104000378_7" function="internal">
        <lane id=":3104000378_7_0" index="0" disallow="tram rail_urban rail rail_electric rail_fast ship container cable_car subway aircraft wheelchair scooter drone" speed="7.49" length="5.03" shape="1340.31,465.49 1344.67,463.82 1345.02,463.86"/>
    </edge>
    <edge id=":3104000378_8" function="internal">
        <lane id=":3104000378_8_0" index="0" disallow="tram rail_urban rail rail_electric rail_fast ship container cable_car subway aircraft wheelchair scooter drone" speed="3.65" length="1.44" shape="1340.31,465.49 1341.75,465.61"/>
    </edge>
    <edge id=":3104000378_10" function="internal">
        <lane id=":3104000378_10_0" index="0" disallow="tram rail_urban rail rail_electric rail_fast ship container cable_car subway aircraft wheelchair scooter drone" speed="7.49" length="10.95" shape="1345.02,463.86 1347.96,464.21 1350.19,466.66 1351.36,471.19"/>
    </edge>
    <edge id=":3104000378_11" function="internal">
        <lane id=":3104000378_11_0" index="0" disallow="tram rail_urban rail rail_electric rail_fast ship container cable_car subway aircraft wheelchair scooter drone" speed="3.65" length="3.23" shape="1341.75,465.61 1342.49,466.12 1342.52,467.01 1341.86,468.29"/>
    </edge>
    <edge id=":3104000385_0" function="internal">
        <lane id=":3104000385_0_0" index="0" disallow="tram rail_urban rail rail_electric rail_fast ship container cable_car subway aircraft wheelchair scooter drone" speed="3.65" length="4.67" shape="1564.05,481.01 1565.33,481.66 1565.83,482.41 1565.52,483.25 1564.43,484.19"/>
    </edge>
    <edge id=":3104000390_0" function="internal">
        <lane id=":3104000390_0_0" index="0" disallow="tram rail_urban rail rail_electric rail_fast ship container cable_car subway aircraft wheelchair scooter drone" speed="6.56" length="7.67" shape="1303.84,493.56 1303.02,491.68 1301.80,490.38 1300.16,489.65 1298.12,489.50"/>
    </edge>
    <edge id=":3104000390_1" function="internal">
        <lane id=":3104000390_1_0" index="0" disallow="tram rail_urban rail rail_electric rail_fast ship container cable_car subway aircraft wheelchair scooter drone" speed="8.10" length="12.04" shape="1303.84,493.56 1303.38,490.37 1303.93,487.61 1305.49,485.28 1308.06,483.36"/>
    </edge>
    <edge id=":3104000390_2" function="internal">
        <lane id=":3104000390_2_0" index="0" disallow="tram rail_urban rail rail_electric rail_fast ship container cable_car subway aircraft wheelchair scooter drone" speed="3.65" length="4.67" shape="1303.84,493.56 1304.28,492.18 1304.94,491.58 1305.82,491.74 1306.92,492.68"/>
    </edge>
    <edge id=":3104000390_3" function="internal">
        <lane id=":3104000390_3_0" index="0" disallow="tram rail_urban rail rail_electric rail_fast ship container cable_car subway aircraft wheelchair scooter drone" speed="6.60" length="7.69" shape="1309.61,486.16 1307.97,487.38 1306.97,488.88 1306.62,490.64 1306.92,492.68"/>
    </edge>
    <edge id=":3104000390_4" function="internal">
        <lane id=":3104000390_4_0" index="0" disallow="tram rail_urban rail rail_electric rail_fast ship container cable_car subway aircraft wheelchair scooter drone" speed="13.89" length="12.10" shape="1309.61,486.16 1306.67,487.66 1304.09,488.63 1301.40,489.19 1298.12,489.50"/>
    </edge>
    <edge id=":3104000390_5" function="internal">
        <lane id=":3104000390_5_0" index="0" disallow="tram rail_urban rail rail_electric rail_fast ship container cable_car subway aircraft wheelchair scooter drone" speed="3.65" length="1.44" shape="1309.61,486.16 1308.17,486.04"/>
    </edge>
    <edge id=":3104000390_9" function="internal">
        <lane id=":3104000390_9_0" index="0" disallow="tram rail_urban rail rail_electric rail_fast ship container cable_car subway aircraft wheelchair scooter drone" speed="3.65" length="3.23" shape="1308.17,486.04 1307.43,485.54 1307.39,484.64 1308.06,483.36"/>
    </edge>
    <edge id=":3104000390_6" function="internal">
        <lane id=":3104000390_6_0" index="0" disallow="tram rail_urban rail rail_electric rail_fast ship container cable_car subway aircraft wheelchair scooter drone" speed="13.89" length="10.70" shape="1297.92,486.31 1300.99,486.06 1303.22,485.63 1305.33,484.80 1308.06,483.36"/>
    </edge>
    <edge id=":3104000390_7" function="internal">
        <lane id=":3104000390_7_0" index="0" disallow="tram rail_urban rail rail_electric rail_fast ship container cable_car subway aircraft wheelchair scooter drone" speed="8.07" length="3.45" shape="1297.92,486.31 1301.13,486.54 1301.34,486.64"/>
    </edge>
    <edge id=":3104000390_8" function="internal">
        <lane id=":3104000390_8_0" index="0" disallow="tram rail_urban rail rail_electric rail_fast ship container cable_car subway aircraft wheelchair scooter drone" speed="3.65" length="1.44" shape="1297.92,486.31 1299.17,487.03"/>
    </edge>
    <edge id=":3104000390_10" function="internal">
        <lane id=":3104000390_10_0" index="0" disallow="tram rail_urban rail rail_electric rail_fast ship container cable_car subway aircraft wheelchair scooter drone" speed="8.07" length="8.61" shape="1301.34,486.64 1303.70,487.68 1305.63,489.73 1306.92,492.68"/>
    </edge>
    <edge id=":3104000390_11" function="internal">
        <lane id=":3104000390_11_0" index="0" disallow="tram rail_urban rail rail_electric rail_fast ship container cable_car subway aircraft wheelchair scooter drone" speed="3.65" length="3.23" shape="1299.17,487.03 1299.62,487.81 1299.27,488.63 1298.12,489.50"/>
    </edge>
    <edge id=":3104000391_0" function="internal">
        <lane id=":3104000391_0_0" index="0" disallow="tram rail_urban rail rail_electric rail_fast ship container cable_car subway aircraft wheelchair scooter drone" speed="9.84" length="12.47" shape="1275.17,490.58 1271.24,490.13 1267.96,490.33 1265.33,491.16 1263.35,492.63"/>
    </edge>
    <edge id=":3104000391_1" function="internal">
        <lane id=":3104000391_1_0" index="0" disallow="tram rail_urban rail rail_electric rail_fast ship container cable_car subway aircraft wheelchair scooter drone" speed="7.41" length="16.79" shape="1275.17,490.58 1270.37,489.04 1268.08,486.59 1268.29,483.25 1271.00,479.00"/>
    </edge>
    <edge id=":3104000391_2" function="internal">
        <lane id=":3104000391_2_0" index="0" disallow="tram rail_urban rail rail_electric rail_fast ship container cable_car subway aircraft wheelchair scooter drone" speed="3.65" length="4.67" shape="1275.17,490.58 1274.13,489.58 1273.88,488.72 1274.42,488.01 1275.74,487.43"/>
    </edge>
    <edge id=":3104000391_3" function="internal">
        <lane id=":3104000391_3_0" index="0" disallow="tram rail_urban rail rail_electric rail_fast ship container cable_car subway aircraft wheelchair scooter drone" speed="5.67" length="9.24" shape="1273.45,481.06 1271.95,483.40 1271.84,485.24 1273.10,486.59 1275.74,487.43"/>
    </edge>
    <edge id=":3104000391_4" function="internal">
        <lane id=":3104000391_4_0" index="0" disallow="tram rail_urban rail rail_electric rail_fast ship container cable_car subway aircraft wheelchair scooter drone" speed="22.22" length="15.36" shape="1273.45,481.06 1263.35,492.63"/>
    </edge>
    <edge id=":3104000391_5" function="internal">
        <lane id=":3104000391_5_0" index="0" disallow="tram rail_urban rail rail_electric rail_fast ship container cable_car subway aircraft wheelchair scooter drone" speed="3.65" length="1.44" shape="1273.45,481.06 1272.06,481.46"/>
    </edge>
    <edge id=":3104000391_9" function="internal">
        <lane id=":3104000391_9_0" index="0" disallow="tram rail_urban rail rail_electric rail_fast ship container cable_car subway aircraft wheelchair scooter drone" speed="3.65" length="3.23" shape="1272.06,481.46 1271.19,481.25 1270.84,480.43 1271.00,479.00"/>
    </edge>
    <edge id=":3104000391_6" function="internal">
        <lane id=":3104000391_6_0" index="0" disallow="tram rail_urban rail rail_electric rail_fast ship container cable_car subway aircraft wheelchair scooter drone" speed="22.22" length="15.22" shape="1261.00,490.46 1271.00,479.00"/>
    </edge>
    <edge id=":3104000391_7" function="internal">
        <lane id=":3104000391_7_0" index="0" disallow="tram rail_urban rail rail_electric rail_fast ship container cable_car subway aircraft wheelchair scooter drone" speed="10.98" length="3.30" shape="1261.00,490.46 1263.61,488.44"/>
    </edge>
    <edge id=":3104000391_8" function="internal">
        <lane id=":3104000391_8_0" index="0" disallow="tram rail_urban rail rail_electric rail_fast ship container cable_car subway aircraft wheelchair scooter drone" speed="3.65" length="1.44" shape="1261.00,490.46 1262.40,490.12"/>
    </edge>
    <edge id=":3104000391_10" function="internal">
        <lane id=":3104000391_10_0" index="0" disallow="tram rail_urban rail rail_electric rail_fast ship container cable_car subway aircraft wheelchair scooter drone" speed="10.98" length="12.38" shape="1263.61,488.44 1266.93,487.27 1270.98,486.93 1275.74,487.43"/>
    </edge>
    <edge id=":3104000391_11" function="internal">
        <lane id=":3104000391_11_0" index="0" disallow="tram rail_urban rail rail_electric rail_fast ship container cable_car subway aircraft wheelchair scooter drone" speed="3.65" length="3.23" shape="1262.40,490.12 1263.26,490.37 1263.57,491.21 1263.35,492.63"/>
    </edge>
    <edge id=":3104000398_0" function="internal">
        <lane id=":3104000398_0_0" index="0" disallow="tram rail_urban rail rail_electric rail_fast ship container cable_car subway aircraft wheelchair scooter drone" speed="22.22" length="15.03" shape="1259.65,496.64 1257.08,499.38 1254.45,502.07 1251.76,504.70 1249.01,507.25"/>
    </edge>
    <edge id=":3104000398_1" function="internal">
        <lane id=":3104000398_1_0" index="0" disallow="tram rail_urban rail rail_electric rail_fast ship container cable_car subway aircraft wheelchair scooter drone" speed="7.60" length="4.39" shape="1259.65,496.64 1256.25,499.42"/>
    </edge>
    <edge id=":3104000398_2" function="internal">
        <lane id=":3104000398_2_0" index="0" disallow="tram rail_urban rail rail_electric rail_fast ship container cable_car subway aircraft wheelchair scooter drone" speed="3.65" length="1.44" shape="1259.65,496.64 1258.25,496.98"/>
    </edge>
    <edge id=":3104000398_9" function="internal">
        <lane id=":3104000398_9_0" index="0" disallow="tram rail_urban rail rail_electric rail_fast ship container cable_car subway aircraft wheelchair scooter drone" speed="7.60" length="10.96" shape="1256.25,499.42 1253.04,500.14 1250.03,498.82 1247.22,495.45"/>
    </edge>
    <edge id=":3104000398_10" function="internal">
        <lane id=":3104000398_10_0" index="0" disallow="tram rail_urban rail rail_electric rail_fast ship container cable_car subway aircraft wheelchair scooter drone" speed="3.65" length="3.23" shape="1258.25,496.98 1257.39,496.74 1257.07,495.90 1257.30,494.47"/>
    </edge>
    <edge id=":3104000398_3" function="internal">
        <lane id=":3104000398_3_0" index="0" disallow="tram rail_urban rail rail_electric rail_fast ship container cable_car subway aircraft wheelchair scooter drone" speed="6.00" length="9.08" shape="1249.94,493.77 1251.61,495.76 1253.39,496.54 1255.28,496.11 1257.30,494.47"/>
    </edge>
    <edge id=":3104000398_4" function="internal">
        <lane id=":3104000398_4_0" index="0" disallow="tram rail_urban rail rail_electric rail_fast ship container cable_car subway aircraft wheelchair scooter drone" speed="8.76" length="14.85" shape="1249.94,493.77 1251.77,497.66 1252.22,501.20 1251.30,504.40 1249.01,507.25"/>
    </edge>
    <edge id=":3104000398_5" function="internal">
        <lane id=":3104000398_5_0" index="0" disallow="tram rail_urban rail rail_electric rail_fast ship container cable_car subway aircraft wheelchair scooter drone" speed="3.65" length="4.67" shape="1249.94,493.77 1249.89,495.21 1249.42,495.97 1248.53,496.05 1247.22,495.45"/>
    </edge>
    <edge id=":3104000398_6" function="internal">
        <lane id=":3104000398_6_0" index="0" disallow="tram rail_urban rail rail_electric rail_fast ship container cable_car subway aircraft wheelchair scooter drone" speed="7.40" length="10.34" shape="1246.87,504.87 1248.38,502.94 1248.94,500.73 1248.56,498.23 1247.22,495.45"/>
    </edge>
    <edge id=":3104000398_7" function="internal">
        <lane id=":3104000398_7_0" index="0" disallow="tram rail_urban rail rail_electric rail_fast ship container cable_car subway aircraft wheelchair scooter drone" speed="22.22" length="14.73" shape="1246.87,504.87 1249.59,502.35 1252.21,499.80 1254.76,497.18 1257.30,494.47"/>
    </edge>
    <edge id=":3104000398_8" function="internal">
        <lane id=":3104000398_8_0" index="0" disallow="tram rail_urban rail rail_electric rail_fast ship container cable_car subway aircraft wheelchair scooter drone" speed="3.65" length="1.44" shape="1246.87,504.87 1248.30,504.66"/>
    </edge>
    <edge id=":3104000398_11" function="internal">
        <lane id=":3104000398_11_0" index="0" disallow="tram rail_urban rail rail_electric rail_fast ship container cable_car subway aircraft wheelchair scooter drone" speed="3.65" length="3.23" shape="1248.30,504.66 1249.13,504.99 1249.37,505.85 1249.01,507.25"/>
    </edge>